src/applications/development/dynamic_simulation_implicit/IEEE_145bus_v23_PSLF.raw
0  100.000
 0,    100.00, 23, 0, 0, 60.00       / February 17, 2014 16:14:23
 0,    100.00, 23, 0, 0, 60.00       / February 17, 2014 16:14:23
      1, 1,     0.000,     0.000,     0.000,     0.000,   1,1.08100,  -4.3243,'bus-1       ',100.0000,   2
      2, 1,     0.000,     0.000,     0.000,     0.000,   1,1.08086,  -4.3909,'bus-2       ',100.0000,   2
      3, 1,     0.000,     0.000,     0.000,  -126.000,   1,1.10153,  -4.0262,'bus-3       ',100.0000,   2
      4, 1,     0.000,     0.000,     0.000,  -126.000,   1,1.10153,  -4.0262,'bus-4       ',100.0000,   2
      5, 1,     0.000,     0.000,     0.000,  -126.000,   1,1.10181,  -4.0260,'bus-5       ',100.0000,   2
      6, 1,     0.000,     0.000,     0.000,     0.000,   1,1.04330,  -7.8394,'bus-6       ',100.0000,   2
      7, 1,     0.000,     0.000,     0.000,     0.000,   1,1.07630,   3.2079,'bus-7       ',100.0000,   2
      8, 1,     0.000,     0.000,     0.000,     0.000,   1,1.11366,   1.1462,'bus-8       ',100.0000,   2
      9, 1,     0.000,     0.000,     0.000,     0.000,   1,1.03959,  -8.0545,'bus-9       ',100.0000,   2
     10, 1,     0.000,     0.000,     0.000,     0.000,   1,1.03957,  -8.0552,'bus-10      ',100.0000,   2
     11, 1,     0.000,     0.000,     0.000,     0.000,   1,1.09367, -10.6594,'bus-11      ',100.0000,   2
     12, 1,     0.000,     0.000,     0.000,     0.000,   1,1.03886,  -8.7721,'bus-12      ',100.0000,   2
     13, 1,     0.000,     0.000,     0.000,     0.000,   1,1.09819, -11.4326,'bus-13      ',100.0000,   2
     14, 1,     0.000,     0.000,     0.000,     0.000,   1,1.03852,  -9.1802,'bus-14      ',100.0000,   2
     15, 1,     0.000,     0.000,     0.000,  -126.000,   1,1.06829,  -9.8139,'bus-15      ',100.0000,   2
     16, 1,     0.000,     0.000,     0.000,  -126.000,   1,1.06862,  -9.8673,'bus-16      ',100.0000,   2
     17, 1,     0.000,     0.000,     0.000,  -250.000,   1,1.00123,  -9.4448,'bus-17      ',100.0000,   2
     18, 1,     0.000,     0.000,     0.000,  -126.000,   1,1.07464, -10.8819,'bus-18      ',100.0000,   2
     19, 1,     0.000,     0.000,     0.000,   -58.000,   1,1.07082, -10.9617,'bus-19      ',100.0000,   2
     20, 1,     0.000,     0.000,     0.000,     0.000,   1,1.11305, -10.9605,'bus-20      ',100.0000,   2
     21, 1,     0.000,     0.000,     0.000,     0.000,   1,1.10855, -11.2432,'bus-21      ',100.0000,   2
     22, 1,     0.000,     0.000,     0.000,     0.000,   1,1.03103,  -3.8878,'bus-22      ',100.0000,   2
     23, 1,     0.000,     0.000,     0.000,     0.000,   1,1.09784,  -5.5132,'bus-23      ',100.0000,   2
     24, 1,     0.000,     0.000,     0.000,     0.000,   1,1.02719,   2.3013,'bus-24      ',100.0000,   2
     25, 1,     0.000,     0.000,     0.000,     0.000,   1,1.03796,  -9.8735,'bus-25      ',100.0000,   2
     26, 1,     0.000,     0.000,     0.000,     0.000,   1,1.08944, -11.3770,'bus-26      ',100.0000,   2
     27, 1,     0.000,     0.000,     0.000,     0.000,   1,1.03885, -13.0764,'bus-27      ',100.0000,   2
     28, 1,     0.000,     0.000,     0.000,  -126.000,   1,1.07623, -15.2811,'bus-28      ',100.0000,   2
     29, 1,     0.000,     0.000,     0.000,  -126.000,   1,1.07462, -15.4438,'bus-29      ',100.0000,   2
     30, 1,     0.000,     0.000,     0.000,     0.000,   1,1.07305,  -5.3537,'bus-30      ',100.0000,   2
     31, 1,     0.000,     0.000,     0.000,     0.000,   1,1.09053, -11.8162,'bus-31      ',100.0000,   2
     32, 1,     0.000,     0.000,     0.000,     0.000,   1,1.09371, -10.6669,'bus-32      ',100.0000,   2
     33, 1,     0.000,     0.000,     0.000,     0.000,   1,1.13924,  -4.0637,'bus-33      ',100.0000,   2
     34, 1,    45.050,    46.560,     0.000,     0.000,   1,1.13871,  -4.0044,'bus-34      ',100.0000,   2
     35, 1,    49.190,    27.530,     0.000,     0.000,   1,1.13900,  -4.0825,'bus-35      ',100.0000,   2
     36, 1,     0.000,     0.000,     0.000,     0.000,   1,1.13854,  -3.8171,'bus-36      ',100.0000,   2
     37, 1,     0.000,     0.000,     0.000,     0.000,   1,1.12351,  -6.2345,'bus-37      ',100.0000,   2
     38, 1,     0.000,     0.000,     0.000,     0.000,   1,1.13057,  -5.2949,'bus-38      ',100.0000,   2
     39, 1,     0.000,     0.000,     0.000,     0.000,   1,1.12696,  -7.9183,'bus-39      ',100.0000,   2
     40, 1,     0.000,     0.000,     0.000,     0.000,   1,1.12694,  -7.9224,'bus-40      ',100.0000,   2
     41, 1,     0.000,     0.000,    54.000,   -10.000,   1,1.11884, -10.4340,'bus-41      ',100.0000,   2
     42, 1,     0.000,     0.000,    54.800,   -10.000,   1,1.11881, -10.4482,'bus-42      ',100.0000,   2
     43, 1,     0.000,     0.000,     0.000,     0.000,   1,1.11895, -10.4061,'bus-43      ',100.0000,   2
     44, 1,     0.000,     0.000,     0.000,     0.000,   1,1.11892, -10.4201,'bus-44      ',100.0000,   2
     45, 1,     0.000,     0.000,     0.000,     0.000,   1,1.11729, -11.4168,'bus-45      ',100.0000,   2
     46, 1,     0.000,     0.000,     0.000,     0.000,   1,1.11730, -11.4118,'bus-46      ',100.0000,   2
     47, 1,     0.000,     0.000,    15.200,     5.370,   1,1.12753,  -6.7277,'bus-47      ',100.0000,   2
     48, 1,     0.000,     0.000,    13.800,     5.200,   1,1.12783,  -6.7083,'bus-48      ',100.0000,   2
     49, 1,     0.000,     0.000,     0.000,     0.000,   1,1.12790,  -6.6988,'bus-49      ',100.0000,   2
     50, 1,     0.000,     0.000,     0.000,     0.000,   1,1.12760,  -6.7177,'bus-50      ',100.0000,   2
     51, 1,    58.450,    28.440,     0.000,     0.000,   1,1.11239, -10.1617,'bus-51      ',100.0000,   2
     52, 1,     0.000,     0.000,    23.000,    -9.700,   1,1.11178, -11.1345,'bus-52      ',100.0000,   2
     53, 1,     0.000,     0.000,    23.200,    -9.700,   1,1.11178, -11.1360,'bus-53      ',100.0000,   2
     54, 1,     0.000,     0.000,    18.800,    -9.300,   1,1.11311, -11.7878,'bus-54      ',100.0000,   2
     55, 1,     0.000,     0.000,    18.700,    -9.200,   1,1.11312, -11.7878,'bus-55      ',100.0000,   2
     56, 1,     0.000,     0.000,    18.600,    -7.500,   1,1.10714,  -9.9452,'bus-56      ',100.0000,   2
     57, 1,     0.000,     0.000,    18.800,    -7.000,   1,1.10719,  -9.9467,'bus-57      ',100.0000,   2
     58, 1,    76.300,   -10.800,   121.000,   140.000,   1,1.10664,  -9.7664,'bus-58      ',100.0000,   2
     59, 1,     0.000,     0.000,   508.000,     8.630,   1,1.11645, -10.8447,'bus-59      ',100.0000,   2
     60, 2,     0.000,     0.000,   201.000,   165.000,   1,1.13700,  -6.3726,'bus-60      ',100.0000,   2
     61, 1,     0.000,     0.000,     0.000,   149.000,   1,1.11443, -11.8929,'bus-61      ',100.0000,   2
     62, 1,     0.000,     0.000,     0.000,     0.000,   1,1.05660, -14.4707,'bus-62      ',100.0000,   2
     63, 1,     0.000,     0.000,   823.000,   525.000,   1,1.11092, -13.9815,'bus-63      ',100.0000,   2
     64, 1,     0.000,     0.000,   123.000,   -26.000,   1,1.09800,  -9.2898,'bus-64      ',100.0000,   2
     65, 1,     0.000,     0.000,   124.000,   -26.000,   1,1.09798,  -9.2916,'bus-65      ',100.0000,   2
     66, 1,   102.200,    26.700,   216.000,  1897.000,   1,1.11289,   1.3155,'bus-66      ',100.0000,   2
     67, 2,     0.000,     0.000,  1821.000,  1280.000,   1,1.09000,  -5.6594,'bus-67      ',100.0000,   2
     68, 1,     0.000,    -7.410,    56.300,   -25.000,   1,1.20860, -30.9877,'bus-68      ',100.0000,   2
     69, 1,     0.000,     0.000,   971.000,  -144.000,   1,1.09675, -10.4189,'bus-69      ',100.0000,   2
     70, 1,     0.000,    56.630,   103.000,   -86.000,   1,0.99983, -14.1693,'bus-70      ',100.0000,   2
     71, 1,     0.000,   -21.200,   106.000,  -122.000,   1,1.02749, -14.2629,'bus-71      ',100.0000,   2
     72, 1,     0.000,     0.000,  1019.000,    24.600,   1,1.10073, -11.1968,'bus-72      ',100.0000,   2
     73, 1,     0.000,     0.000,  1222.000,   841.000,   1,1.09753, -11.0623,'bus-73      ',100.0000,   2
     74, 1,    81.900,    43.700,   857.000,   574.000,   1,1.09726, -11.4633,'bus-74      ',100.0000,   2
     75, 1,     0.000,     0.000,   387.000,   199.000,   1,1.11789, -15.1896,'bus-75      ',100.0000,   2
     76, 1,     0.000,     0.000,  -667.000,  -185.000,   1,1.02089,   5.5328,'bus-76      ',100.0000,   2
     77, 1,     0.000,     0.000,     0.000,  -125.000,   1,0.98799,   6.7178,'bus-77      ',100.0000,   2
     78, 1,    89.000,    26.800,     0.000,     0.000,   1,1.07396,  -5.1924,'bus-78      ',100.0000,   2
     79, 2,     9.100,     3.000,   238.000,    27.100,   1,1.05200,  -9.5180,'bus-79      ',100.0000,   2
     80, 2,    17.100,     5.000,     0.000,    29.900,   1,1.06900,  -8.2217,'bus-80      ',100.0000,   2
     81, 1,    82.200,   -93.100,    70.000,   -47.000,   1,1.13039, -25.8673,'bus-81      ',100.0000,   2
     82, 2,     2.100,     1.100,   111.000,   -28.000,   1,0.97500, -18.6655,'bus-82      ',100.0000,   2
     83, 1,     0.000,     0.000,   105.000,    -0.420,   1,1.09846,  -5.3846,'bus-83      ',100.0000,   2
     84, 1,    24.300,     8.200,     0.000,     0.000,   1,1.11558,  -9.4413,'bus-84      ',100.0000,   2
     85, 1,    27.400,     0.300,     0.000,     0.000,   1,1.11649, -13.0481,'bus-85      ',100.0000,   2
     86, 1,     0.000,     0.000,   292.000,   -22.000,   1,1.05669, -14.0116,'bus-86      ',100.0000,   2
     87, 1,     0.000,     0.000,    37.700,   -47.000,   1,1.06515,  -7.1737,'bus-87      ',100.0000,   2
     88, 1,    69.000,    20.900,     0.000,     0.000,   1,1.10942,  -8.3472,'bus-88      ',100.0000,   2
     89, 2,     0.600,     0.200,   678.000,    71.100,   1,1.06600,   3.6804,'bus-89      ',100.0000,   2
     90, 2,     4.600,     1.500,    29.500,   -19.000,   1,0.95000,  -7.3604,'bus-90      ',100.0000,   2
     91, 2,     0.000,     0.000,    19.300,   -27.000,   1,1.00000,  -9.2788,'bus-91      ',100.0000,   2
     92, 1,     0.000,    31.020,    43.400,   -43.000,   1,0.95612, -12.7578,'bus-92      ',100.0000,   2
     93, 2,   100.400,    73.200,     0.000,     0.000,   1,1.00000,  -1.9205,'bus-93      ',100.0000,   2
     94, 2,    15.400,     7.600,   140.000,  -141.000,   1,1.02000,  -0.7475,'bus-94      ',100.0000,   2
     95, 2,     6.700,     2.200,    27.200,   -58.000,   1,0.92000,  18.8783,'bus-95      ',100.0000,   2
     96, 2,     0.000,     0.000,    47.800,   -45.000,   1,1.00000,  -8.9794,'bus-96      ',100.0000,   2
     97, 2,     0.000,     0.000,   129.000,  -177.000,   1,0.96700,  -4.3466,'bus-97      ',100.0000,   2
     98, 2,     0.000,     0.000,    82.100,  -121.000,   1,0.97000,   5.1840,'bus-98      ',100.0000,   2
     99, 2,    10.460,     5.230,     0.000,     0.000,   1,1.00000,   1.0957,'bus-99      ',100.0000,   2
    100, 2,     0.000,     0.000,    59.100,  -101.000,   1,1.01400,   0.7005,'bus-100     ',100.0000,   2
    101, 2,    17.800,     4.500,    64.700,  -238.000,   1,1.03900,  -6.0922,'bus-101     ',100.0000,   2
    102, 2,    37.600,     9.200,   458.000,  -619.000,   1,1.01900,  -4.7654,'bus-102     ',100.0000,   2
    103, 2,     0.000,     0.000,    62.400,   -45.000,   1,1.00000,   1.5116,'bus-103     ',100.0000,   2
    104, 2,    30.200,     7.600,     0.000,     0.000,   1,1.00590,  13.6738,'bus-104     ',100.0000,   2
    105, 2,    96.000,   167.400,    24.200,  -999.000,   1,1.00700,  -2.7977,'bus-105     ',100.0000,   2
    106, 2,    64.000,    16.000,    36.900,  -719.000,   1,1.00500,  -2.7521,'bus-106     ',100.0000,   2
    107, 1,   -17.500,   -12.800,    28.800,   -22.000,   1,1.02108, -13.5785,'bus-107     ',100.0000,   2
    108, 2,     0.000,     0.000,   520.000,  -244.000,   1,1.01400, -14.0327,'bus-108     ',100.0000,   2
    109, 2,     0.000,     0.000,    84.500,   -47.000,   1,0.91500, -18.4573,'bus-109     ',100.0000,   2
    110, 2,   100.400,    73.200,     0.000,     0.000,   1,1.00000,  -1.3093,'bus-110     ',100.0000,   2
    111, 2,    60.400,  1166.000,    23.300,  -999.000,   1,1.00000,   7.9687,'bus-111     ',100.0000,   2
    112, 2,    18.600,     4.600,    64.300,  -236.000,   1,1.03700,  -6.2667,'bus-112     ',100.0000,   2
    113, 1,     0.000,     0.000,     0.000,     0.000,   1,0.97797,  -4.3909,'bus-113     ',100.0000,   2
    114, 1,     0.000,     0.000,     0.000,     0.000,   1,0.97797,  -4.3909,'bus-114     ',100.0000,   2
    115, 2,   683.500,   184.700,  2856.000,     9.410,   1,1.04900, -15.6113,'bus-115     ',100.0000,   2
    116, 2,   792.600,   315.500,  1930.000,  -195.000,   1,1.04300, -16.8628,'bus-116     ',100.0000,   2
    117, 2,   485.300,    71.400,  2410.000,   -54.000,   1,1.03000, -15.3247,'bus-117     ',100.0000,   2
    118, 2,   651.900,   328.400,  4788.000,  -979.000,   1,1.01000, -17.7942,'bus-118     ',100.0000,   2
    119, 2,  2094.000,  3774.000,  9999.000,  -999.000,   1,1.01300, -59.4131,'bus-119     ',100.0000,   2
    120, 1,  -408.000,   175.100,  2026.000,   855.000,   1,1.03311, -51.6061,'bus-120     ',100.0000,   2
    121, 2,   237.700,   -17.300,   306.000,  1055.000,   1,1.04600, -20.1978,'bus-121     ',100.0000,   2
    122, 2,    29.200,     7.000,   397.000,   -61.000,   1,1.00000,  -2.7909,'bus-122     ',100.0000,   2
    123, 1,   -84.000,   -19.000,   118.000,     1.400,   1,1.01712, -33.1239,'bus-123     ',100.0000,   2
    124, 2,    94.100,   780.300,   766.000,  -999.000,   1,1.00000,  -1.8875,'bus-124     ',100.0000,   2
    125, 1,  -712.000,  -319.000,  2831.000,   -71.000,   1,1.00838, -32.5959,'bus-125     ',100.0000,   2
    126, 1,  -333.000,  -160.000,  1604.000,   347.000,   1,1.05238, -73.9011,'bus-126     ',100.0000,   2
    127, 1,  -546.000,   -72.000,   305.000,   -51.000,   1,1.00696, -36.4008,'bus-127     ',100.0000,   2
    128, 2,  4075.000,   703.500,  5252.000,  -472.000,   1,1.02500, -39.7070,'bus-128     ',100.0000,   2
    129, 1,  -482.000,  -122.000,  3855.000,   387.000,   1,0.98019, -73.0746,'bus-129     ',100.0000,   2
    130, 2,  4328.000,   944.300,  3830.000,   -91.000,   1,1.05700, -51.8661,'bus-130     ',100.0000,   2
    131, 2, 21840.000,  4320.000,  5145.000,  -780.000,   1,1.04200, -24.3176,'bus-131     ',100.0000,   2
    132, 2,   491.900,   110.200,  1239.000,  -226.000,   1,1.04200,  -7.2425,'bus-132     ',100.0000,   2
    133, 1,   -83.000,   -36.300,   103.000,    -5.900,   1,1.09222, -11.6001,'bus-133     ',100.0000,   2
    134, 2, 22309.000,  7402.000,  -141.000,   -78.000,   1,1.04400, -10.8211,'bus-134     ',100.0000,   2
    135, 2,  4298.000,  1264.000,  -999.000,   835.000,   1,1.10700,  29.0440,'bus-135     ',100.0000,   2
    136, 2, 52951.000, 13552.000,  -999.000,   375.000,   1,1.08300,   4.3873,'bus-136     ',100.0000,   2
    137, 2, 12946.000,  2608.000,   499.000,  -219.000,   1,1.06400, -72.7315,'bus-137     ',100.0000,   2
    138, 1,  -363.000,  -188.000,   433.000,   -81.000,   1,1.11379,  12.0098,'bus-138     ',100.0000,   2
    139, 2, 57718.000, 13936.000,  1609.000,  -999.000,   1,1.04000, -10.5571,'bus-139     ',100.0000,   2
    140, 2, 24775.000,  6676.000,  -289.000,   -77.000,   1,1.05000, -26.1639,'bus-140     ',100.0000,   2
    141, 2, 32799.000, 11361.000,  5212.000,  -999.000,   1,1.05300,  -9.1208,'bus-141     ',100.0000,   2
    142, 2, 17737.000,  3934.000,  4323.000,  2210.000,   1,1.15500, -10.7326,'bus-142     ',100.0000,   2
    143, 2,  4672.000,  1709.000,   586.000,  -999.000,   1,1.03100, -13.6647,'bus-143     ',100.0000,   2
    144, 2,  9602.000,  2203.000,  -436.000,  -999.000,   1,0.99700,  -8.5779,'bus-144     ',100.0000,   2
    145, 3,  9173.000,  1555.000,  -999.000,   457.000,   1,1.05200,   5.0200,'bus-145     ',100.0000,   2
    146, 1,     0.000,     0.000,     0.000,     0.000,   1,1.15500, -10.7326,'bus-146     ',100.0000,   1
0
    60,'1 ',    51.000,    32.920,    53.400,   -20.400,1.13700,     0,   100.000,   0.00000,   1.00000,   0.00000,   0.00000,   1.00000,1,  100.0,     0.000,     0.000
    67,'1 ',  1486.000,   285.191,   891.600,  -594.000,1.09000,     0,   100.000,   0.00000,   1.00000,   0.00000,   0.00000,   1.00000,1,  100.0,     0.000,     0.000
    79,'1 ',   250.200,   -15.978,   150.100,  -100.000,1.05200,     0,   100.000,   0.00000,   1.00000,   0.00000,   0.00000,   1.00000,1,  100.0,     0.000,     0.000
    80,'1 ',    47.000,   -15.035,    28.200,   -18.800,1.06900,     0,   100.000,   0.00000,   1.00000,   0.00000,   0.00000,   1.00000,1,  100.0,     0.000,     0.000
    82,'1 ',    70.000,    17.153,    42.000,   -28.000,0.97500,     0,   100.000,   0.00000,   1.00000,   0.00000,   0.00000,   1.00000,1,  100.0,     0.000,     0.000
    89,'1 ',   673.000,   136.359,   403.800,  -269.000,1.06600,     0,   100.000,   0.00000,   1.00000,   0.00000,   0.00000,   1.00000,1,  100.0,     0.000,     0.000
    90,'1 ',    22.000,    -3.865,    13.200,    -8.800,0.95000,     0,   100.000,   0.00000,   1.00000,   0.00000,   0.00000,   1.00000,1,  100.0,     0.000,     0.000
    91,'1 ',    64.000,    -1.540,    38.400,   -25.600,1.00000,     0,   100.000,   0.00000,   1.00000,   0.00000,   0.00000,   1.00000,1,  100.0,     0.000,     0.000
    93,'1 ',   700.000,   373.772,   766.000,  -520.000,1.00000,     0,   100.000,   0.00000,   1.00000,   0.00000,   0.00000,   1.00000,1,  100.0,     0.000,     0.000
    94,'1 ',   300.000,    19.055,   288.000,  -192.000,1.02000,     0,   100.000,   0.00000,   1.00000,   0.00000,   0.00000,   1.00000,1,  100.0,     0.000,     0.000
    95,'1 ',   131.000,    10.124,   108.600,   -72.400,0.92000,     0,   100.000,   0.00000,   1.00000,   0.00000,   0.00000,   1.00000,1,  100.0,     0.000,     0.000
    96,'1 ',    60.000,    21.108,    36.000,   -24.000,1.00000,     0,   100.000,   0.00000,   1.00000,   0.00000,   0.00000,   1.00000,1,  100.0,     0.000,     0.000
    97,'1 ',   140.000,    45.626,    84.000,   -56.000,0.96700,     0,   100.000,   0.00000,   1.00000,   0.00000,   0.00000,   1.00000,1,  100.0,     0.000,     0.000
    98,'1 ',   426.000,   -32.718,   255.600,  -170.000,0.97000,     0,   100.000,   0.00000,   1.00000,   0.00000,   0.00000,   1.00000,1,  100.0,     0.000,     0.000
    99,'1 ',   200.000,    -8.331,   110.000,  -110.000,1.00000,     0,   100.000,   0.00000,   1.00000,   0.00000,   0.00000,   1.00000,1,  100.0,     0.000,     0.000
   100,'1 ',   170.000,    58.720,   102.000,   -68.000,1.01400,     0,   100.000,   0.00000,   1.00000,   0.00000,   0.00000,   1.00000,1,  100.0,     0.000,     0.000
   101,'1 ',   310.900,   148.655,   186.500,  -124.000,1.03900,     0,   100.000,   0.00000,   1.00000,   0.00000,   0.00000,   1.00000,1,  100.0,     0.000,     0.000
   102,'1 ',  2040.000,   488.895,   640.000,     0.000,1.01900,     0,   100.000,   0.00000,   1.00000,   0.00000,   0.00000,   1.00000,1,  100.0,     0.000,     0.000
   103,'1 ',   135.000,     4.959,    81.000,   -54.000,1.00000,     0,   100.000,   0.00000,   1.00000,   0.00000,   0.00000,   1.00000,1,  100.0,     0.000,     0.000
   104,'1 ',  2000.000,   500.000,   500.000,     0.000,1.04500,     0,   100.000,   0.00000,   1.00000,   0.00000,   0.00000,   1.00000,1,  100.0,     0.000,     0.000
   105,'1 ',  1620.000,   388.328,  1008.000,     0.000,1.00700,     0,   100.000,   0.00000,   1.00000,   0.00000,   0.00000,   1.00000,1,  100.0,     0.000,     0.000
   106,'1 ',  1080.000,   209.374,   671.000,     0.000,1.00500,     0,   100.000,   0.00000,   1.00000,   0.00000,   0.00000,   1.00000,1,  100.0,     0.000,     0.000
   108,'1 ',   800.000,    77.272,   480.000,  -320.000,1.01400,     0,   100.000,   0.00000,   1.00000,   0.00000,   0.00000,   1.00000,1,  100.0,     0.000,     0.000
   109,'1 ',    52.000,   -15.552,    31.200,   -20.800,0.91500,     0,   100.000,   0.00000,   1.00000,   0.00000,   0.00000,   1.00000,1,  100.0,     0.000,     0.000
   110,'1 ',   700.000,   519.917,   766.000,     0.000,1.00000,     0,   100.000,   0.00000,   1.00000,   0.00000,   0.00000,   1.00000,1,  100.0,     0.000,     0.000
   111,'1 ',  2000.000,   563.699,  1000.000,     0.000,1.00000,     0,   100.000,   0.00000,   1.00000,   0.00000,   0.00000,   1.00000,1,  100.0,     0.000,     0.000
   112,'1 ',   300.000,   140.105,   160.000,     0.000,1.03700,     0,   100.000,   0.00000,   1.00000,   0.00000,   0.00000,   1.00000,1,  100.0,     0.000,     0.000
   115,'1 ',  2493.000,   142.733,  1496.000,  -997.000,1.04900,     0,   100.000,   0.00000,   1.00000,   0.00000,   0.00000,   1.00000,1,  100.0,     0.000,     0.000
   116,'1 ',  2713.000,   631.837,  1628.000, -1085.000,1.04300,     0,   100.000,   0.00000,   1.00000,   0.00000,   0.00000,   1.00000,1,  100.0,     0.000,     0.000
   117,'1 ',  2627.000,   258.545,  1576.000, -1051.000,1.03000,     0,   100.000,   0.00000,   1.00000,   0.00000,   0.00000,   1.00000,1,  100.0,     0.000,     0.000
   118,'1 ',  4220.000,   660.363,  2532.000, -1688.000,1.01000,     0,   100.000,   0.00000,   1.00000,   0.00000,   0.00000,   1.00000,1,  100.0,     0.000,     0.000
   119,'1 ',  8954.000,  4748.493,  5373.000, -3582.000,1.01300,     0,   100.000,   0.00000,   1.00000,   0.00000,   0.00000,   1.00000,1,  100.0,     0.000,     0.000
   121,'1 ',  2997.000,  -160.232,  1798.000, -1199.000,1.04600,     0,   100.000,   0.00000,   1.00000,   0.00000,   0.00000,   1.00000,1,  100.0,     0.000,     0.000
   122,'1 ',  1009.000,   174.040,   605.400,  -404.000,1.00000,     0,   100.000,   0.00000,   1.00000,   0.00000,   0.00000,   1.00000,1,  100.0,     0.000,     0.000
   124,'1 ',  3005.000,   569.186,  1803.000, -1202.000,1.00000,     0,   100.000,   0.00000,   1.00000,   0.00000,   0.00000,   1.00000,1,  100.0,     0.000,     0.000
   128,'1 ', 12963.000,  2610.817,  7778.000, -5185.000,1.02500,     0,   100.000,   0.00000,   1.00000,   0.00000,   0.00000,   1.00000,1,  100.0,     0.000,     0.000
   130,'1 ',  5937.000,  1834.966,  3562.000, -2375.000,1.05700,     0,   100.000,   0.00000,   1.00000,   0.00000,   0.00000,   1.00000,1,  100.0,     0.000,     0.000
   131,'1 ', 28300.000,  7473.082, 16980.000, -9999.000,1.04200,     0,   100.000,   0.00000,   1.00000,   0.00000,   0.00000,   1.00000,1,  100.0,     0.000,     0.000
   132,'1 ',  3095.000,   633.419,  1857.000, -1238.000,1.04200,     0,   100.000,   0.00000,   1.00000,   0.00000,   0.00000,   1.00000,1,  100.0,     0.000,     0.000
   134,'1 ', 20625.998,  7402.156, 12375.000, -8250.000,1.04400,     0,   100.000,   0.00000,   1.00000,   0.00000,   0.00000,   1.00000,1,  100.0,     0.000,     0.000
   135,'1 ',  5982.000,  1564.841,  3589.000, -2393.000,1.10700,     0,   100.000,   0.00000,   1.00000,   0.00000,   0.00000,   1.00000,1,  100.0,     0.000,     0.000
   136,'1 ', 51950.000, 14453.496, 31170.002, -9999.000,1.08300,     0,   100.000,   0.00000,   1.00000,   0.00000,   0.00000,   1.00000,1,  100.0,     0.000,     0.000
   137,'1 ', 12068.000,  3450.758,  7241.000, -4827.000,1.06400,     0,   100.000,   0.00000,   1.00000,   0.00000,   0.00000,   1.00000,1,  100.0,     0.000,     0.000
   139,'1 ', 56834.004, 15849.663, 34100.000, -9999.000,1.04000,     0,   100.000,   0.00000,   1.00000,   0.00000,   0.00000,   1.00000,1,  100.0,     0.000,     0.000
   140,'1 ', 23123.000,  6710.474, 13874.001, -9249.000,1.05000,     0,   100.000,   0.00000,   1.00000,   0.00000,   0.00000,   1.00000,1,  100.0,     0.000,     0.000
   141,'1 ', 37911.000, 11669.519, 22747.000, -9999.000,1.05300,     0,   100.000,   0.00000,   1.00000,   0.00000,   0.00000,   1.00000,1,  100.0,     0.000,     0.000
   142,'1 ', 24449.002,  5496.146, 14670.000, -9780.000,1.15500,     0,   100.000,   0.00000,   1.00000,   0.00000,   0.00000,   1.00000,1,  100.0,     0.000,     0.000
   143,'1 ',  5254.000,  2158.621,  3152.000, -2101.000,1.03100,     0,   100.000,   0.00000,   1.00000,   0.00000,   0.00000,   1.00000,1,  100.0,     0.000,     0.000
   144,'1 ', 11397.000,  2686.848,  6838.000, -4559.000,0.99700,     0,   100.000,   0.00000,   1.00000,   0.00000,   0.00000,   1.00000,1,  100.0,     0.000,     0.000
   145,'1 ', 14118.735,  2987.191,  9999.000, -9999.000,1.05200,     0,   100.000,   0.00000,   1.00000,   0.00000,   0.00000,   1.00000,1,  100.0,     0.000,     0.000
0 / END OF GENERATOR DATA, BEGIN BRANCH DATA
      1,     -2,'A ',  0.00003,  0.00080,  0.06320,   0.00,   0.00,   0.00,0.00000,000.000, 0.00000, 0.00000, 0.00000, 0.00000, 1
      1,     -2,'BL',  0.00003,  0.00080,  0.06320,   0.00,   0.00,   0.00,0.00000,000.000, 0.00000, 0.00000, 0.00000, 0.00000, 1
      1,     -6,'BL',  0.00194,  0.02090,  2.37920,   0.00,   0.00,   0.00,0.00000,000.000, 0.00000, 0.00000, 0.00000, 0.00000, 1
      2,     -6,'BL',  0.00194,  0.02090,  2.37920,   0.00,   0.00,   0.00,0.00000,000.000, 0.00000, 0.00000, 0.00000, 0.00000, 1
      3,     -1,'BL', -0.00787, -0.15019,  0.00000,   0.00,   0.00,   0.00,1.06952,  0.000, 0.00000, 0.00000,00.00000,00.00000, 1
      3,    -33,'BL',  0.00020,  0.02210,  0.00000,   0.00,   0.00,   0.00,0.00000,000.000, 0.00000, 0.00000, 0.00000, 0.00000, 1
      4,     -1,'BL', -0.00787, -0.15019,  0.00000,   0.00,   0.00,   0.00,1.06952,  0.000, 0.00000, 0.00000,00.00000,00.00000, 1
      4,    -33,'BL',  0.00020,  0.02210,  0.00000,   0.00,   0.00,   0.00,0.00000,000.000, 0.00000, 0.00000, 0.00000, 0.00000, 1
      5,     -1,'BL', -0.00778, -0.14836,  0.00000,   0.00,   0.00,   0.00,1.06952,  0.000, 0.00000, 0.00000,00.00000,00.00000, 1
      5,    -33,'BL',  0.00020,  0.02190,  0.00000,   0.00,   0.00,   0.00,0.00000,000.000, 0.00000, 0.00000, 0.00000, 0.00000, 1
      6,     -7,'BL',  0.00129,  0.01390,  1.46520,   0.00,   0.00,   0.00,0.00000,000.000, 0.00000, 0.00000, 0.00000, 0.00000, 1
      6,     -9,'BL',  0.00016,  0.00170,  0.17520,   0.00,   0.00,   0.00,0.00000,000.000, 0.00000, 0.00000, 0.00000, 0.00000, 1
      6,    -10,'BL',  0.00016,  0.00170,  0.17520,   0.00,   0.00,   0.00,0.00000,000.000, 0.00000, 0.00000, 0.00000, 0.00000, 1
      6,    -12,'A ',  0.00020,  0.00210,  0.87760,   0.00,   0.00,   0.00,0.00000,000.000, 0.00000, 0.00000, 0.00000, 0.00000, 1
      6,    -12,'BL',  0.00020,  0.00210,  0.87760,   0.00,   0.00,   0.00,0.00000,000.000, 0.00000, 0.00000, 0.00000, 0.00000, 1
      8,     -7,'BL', -0.01057, -0.14311,  0.00000,   0.00,   0.00,   0.00,1.02923,  0.000, 0.00000, 0.00000,00.00000,00.00000, 1
      8,    -66,'A ',  0.00020,  0.02210,  0.00000,   0.00,   0.00,   0.00,0.00000,000.000, 0.00000, 0.00000, 0.00000, 0.00000, 1
      8,    -66,'BL',  0.00020,  0.02990,  0.00000,   0.00,   0.00,   0.00,0.00000,000.000, 0.00000, 0.00000, 0.00000, 0.00000, 1
     11,     -9,'BL', -0.01823, -0.25726,  0.00000,   0.00,   0.00,   0.00,1.09099,  0.000, 0.00000, 0.00000,00.00000,00.00000, 1
     11,    -69,'BL',  0.00020,  0.02620,  0.00000,   0.00,   0.00,   0.00,0.00000,000.000, 0.00000, 0.00000, 0.00000, 0.00000, 1
     12,    -14,'A ',  0.00096,  0.00910,  0.85560,   0.00,   0.00,   0.00,0.00000,000.000, 0.00000, 0.00000, 0.00000, 0.00000, 1
     12,    -14,'BL',  0.00096,  0.00910,  0.85560,   0.00,   0.00,   0.00,0.00000,000.000, 0.00000, 0.00000, 0.00000, 0.00000, 1
     12,    -25,'A ',  0.00051,  0.00550,  0.62500,   0.00,   0.00,   0.00,0.00000,000.000, 0.00000, 0.00000, 0.00000, 0.00000, 1
     12,    -25,'BL',  0.00051,  0.00550,  0.62500,   0.00,   0.00,   0.00,0.00000,000.000, 0.00000, 0.00000, 0.00000, 0.00000, 1
     13,    -12,'A ', -0.01991, -0.26549,  0.00000,   0.00,   0.00,   0.00,1.09099,  0.000, 0.00000, 0.00000,00.00000,00.00000, 1
     13,    -12,'B ', -0.01991, -0.26549,  0.00000,   0.00,   0.00,   0.00,1.09099,  0.000, 0.00000, 0.00000,00.00000,00.00000, 1
     13,    -12,'BL', -0.01874, -0.26036,  0.00000,   0.00,   0.00,   0.00,1.09099,  0.000, 0.00000, 0.00000,00.00000,00.00000, 1
     13,    -72,'A ',  0.00030,  0.02620,  0.00000,   0.00,   0.00,   0.00,0.00000,000.000, 0.00000, 0.00000, 0.00000, 0.00000, 1
     13,    -72,'B ',  0.00020,  0.02600,  0.00000,   0.00,   0.00,   0.00,0.00000,000.000, 0.00000, 0.00000, 0.00000, 0.00000, 1
     13,    -72,'BL',  0.00020,  0.02600,  0.00000,   0.00,   0.00,   0.00,0.00000,000.000, 0.00000, 0.00000, 0.00000, 0.00000, 1
     14,    -17,'A ',  0.00352,  0.03670,  3.45160,   0.00,   0.00,   0.00,0.00000,000.000, 0.00000, 0.00000, 0.00000, 0.00000, 1
     14,    -17,'BL',  0.00339,  0.03670,  3.45820,   0.00,   0.00,   0.00,0.00000,000.000, 0.00000, 0.00000, 0.00000, 0.00000, 1
     15,    -14,'BL', -0.03485, -0.33558,  0.00000,   0.00,   0.00,   0.00,1.09123,  0.000, 0.00000, 0.00000,00.00000,00.00000, 1
     15,    -58,'BL',  0.00020,  0.02550,  0.00000,   0.00,   0.00,   0.00,0.00000,000.000, 0.00000, 0.00000, 0.00000, 0.00000, 1
     16,    -14,'BL', -0.00840, -0.14016,  0.00000,   0.00,   0.00,   0.00,1.09123,  0.000, 0.00000, 0.00000,00.00000,00.00000, 1
     16,    -58,'BL',  0.00020,  0.02200,  0.00000,   0.00,   0.00,   0.00,0.00000,000.000, 0.00000, 0.00000, 0.00000, 0.00000, 1
     17,    -22,'BL',  0.00228,  0.02760,  2.62040,   0.00,   0.00,   0.00,0.00000,000.000, 0.00000, 0.00000, 0.00000, 0.00000, 1
     18,    -17,'BL', -0.24121, -0.99715,  0.00000,   0.00,   0.00,   0.00,1.14837,  0.000, 0.00000, 0.00000,00.00000,00.00000, 1
     18,    -59,'BL',  0.00020,  0.02980,  0.00000,   0.00,   0.00,   0.00,0.00000,000.000, 0.00000, 0.00000, 0.00000, 0.00000, 1
     19,    -17,'BL',  0.00000, -0.63140,  0.00000,   0.00,   0.00,   0.00,1.15821,  0.000, 0.00000, 0.00000,00.00000,00.00000, 1
     19,    -59,'BL',  0.00000,  0.06290,  0.00000,   0.00,   0.00,   0.00,0.00000,000.000, 0.00000, 0.00000, 0.00000, 0.00000, 1
     20,    -17,'BL',  0.00000, -0.64676,  0.00000,   0.00,   0.00,   0.00,1.15821,  0.000, 0.00000, 0.00000,00.00000,00.00000, 1
     20,    -59,'BL',  0.00000,  0.06380,  0.00000,   0.00,   0.00,   0.00,0.00000,000.000, 0.00000, 0.00000, 0.00000, 0.00000, 1
     21,    -17,'BL', -0.00720, -0.12246,  0.00000,   0.00,   0.00,   0.00,1.14837,  0.000, 0.00000, 0.00000,00.00000,00.00000, 1
     21,    -59,'BL',  0.00020,  0.03290,  0.00000,   0.00,   0.00,   0.00,0.00000,000.000, 0.00000, 0.00000, 0.00000, 0.00000, 1
     22,    -24,'BL',  0.00173,  0.02080,  1.96480,   0.00,   0.00,   0.00,0.00000,000.000, 0.00000, 0.00000, 0.00000, 0.00000, 1
     23,    -22,'BL',  0.00000, -0.32909,  0.00000,   0.00,   0.00,   0.00,1.07273,  0.000, 0.00000, 0.00000,00.00000,00.00000, 1
     23,    -83,'A ',  0.00030,  0.05970,  0.00000,   0.00,   0.00,   0.00,0.00000,000.000, 0.00000, 0.00000, 0.00000, 0.00000, 1
     23,    -83,'BL',  0.00040,  0.05950,  0.00000,   0.00,   0.00,   0.00,0.00000,000.000, 0.00000, 0.00000, 0.00000, 0.00000, 1
     25,    -27,'A ',  0.00230,  0.02660,  3.05080,   0.00,   0.00,   0.00,0.00000,000.000, 0.00000, 0.00000, 0.00000, 0.00000, 1
     25,    -27,'BL',  0.00230,  0.02660,  3.05080,   0.00,   0.00,   0.00,0.00000,000.000, 0.00000, 0.00000, 0.00000, 0.00000, 1
     26,    -25,'BL', -0.00504, -0.11552,  0.00000,   0.00,   0.00,   0.00,1.09099,  0.000, 0.00000, 0.00000,00.00000,00.00000, 1
     26,    -73,'BL',  0.00030,  0.02670,  0.00000,   0.00,   0.00,   0.00,0.00000,000.000, 0.00000, 0.00000, 0.00000, 0.00000, 1
     28,    -27,'BL', -0.09494, -0.61366,  0.00000,   0.00,   0.00,   0.00,1.10205,  0.000, 0.00000, 0.00000,00.00000,00.00000, 1
     28,    -75,'BL',  0.00020,  0.02900,  0.00000,   0.00,   0.00,   0.00,0.00000,000.000, 0.00000, 0.00000, 0.00000, 0.00000, 1
     29,    -27,'BL', -0.01342, -0.21556,  0.00000,   0.00,   0.00,   0.00,1.10205,  0.000, 0.00000, 0.00000,00.00000,00.00000, 1
     29,    -75,'BL',  0.00020,  0.02690,  0.00000,   0.00,   0.00,   0.00,0.00000,000.000, 0.00000, 0.00000, 0.00000, 0.00000, 1
     30,    -22,'BL',  0.00000, -0.27857,  0.00000,   0.00,   0.00,   0.00,1.04910,  0.000, 0.00000, 0.00000,00.00000,00.00000, 1
     30,    -78,'BL',  0.00000,  0.03350,  0.00000,   0.00,   0.00,   0.00,0.00000,000.000, 0.00000, 0.00000, 0.00000, 0.00000, 1
     31,    -25,'BL', -0.00689, -0.13846,  0.00000,   0.00,   0.00,   0.00,1.09099,  0.000, 0.00000, 0.00000,00.00000,00.00000, 1
     31,    -74,'BL',  0.00030,  0.02790,  0.00000,   0.00,   0.00,   0.00,0.00000,000.000, 0.00000, 0.00000, 0.00000, 0.00000, 1
     32,    -10,'BL', -0.02268, -0.25549,  0.00000,   0.00,   0.00,   0.00,1.09099,  0.000, 0.00000, 0.00000,00.00000,00.00000, 1
     32,    -69,'BL',  0.00020,  0.02650,  0.00000,   0.00,   0.00,   0.00,0.00000,000.000, 0.00000, 0.00000, 0.00000, 0.00000, 1
     33,     -1,'BL',  0.00009,  0.00525,  0.00000,   0.00,   0.00,   0.00,1.06952,  0.000, 0.00000, 0.00000,00.00000,00.00000, 1
     33,    -34,'BL',  0.00006,  0.00090,  0.00060,   0.00,   0.00,   0.00,0.00000,000.000, 0.00000, 0.00000, 0.00000, 0.00000, 1
     33,    -35,'BL',  0.00006,  0.00090,  0.00060,   0.00,   0.00,   0.00,0.00000,000.000, 0.00000, 0.00000, 0.00000, 0.00000, 1
     33,    -37,'BL',  0.00996,  0.07070,  0.11160,   0.00,   0.00,   0.00,0.00000,000.000, 0.00000, 0.00000, 0.00000, 0.00000, 1
     33,    -38,'BL',  0.00995,  0.06930,  0.11100,   0.00,   0.00,   0.00,0.00000,000.000, 0.00000, 0.00000, 0.00000, 0.00000, 1
     33,    -39,'BL',  0.00850,  0.06990,  0.10060,   0.00,   0.00,   0.00,0.00000,000.000, 0.00000, 0.00000, 0.00000, 0.00000, 1
     33,    -40,'BL',  0.00849,  0.06980,  0.10040,   0.00,   0.00,   0.00,0.00000,000.000, 0.00000, 0.00000, 0.00000, 0.00000, 1
     33,    -49,'BL',  0.00560,  0.04930,  0.07780,   0.00,   0.00,   0.00,0.00000,000.000, 0.00000, 0.00000, 0.00000, 0.00000, 1
     33,    -50,'BL',  0.00560,  0.04930,  0.07780,   0.00,   0.00,   0.00,0.00000,000.000, 0.00000, 0.00000, 0.00000, 0.00000, 1
     34,    -36,'BL',  0.00025,  0.00220,  0.00060,   0.00,   0.00,   0.00,0.00000,000.000, 0.00000, 0.00000, 0.00000, 0.00000, 1
     37,    -88,'BL',  0.00310,  0.16510,  0.00000,   0.00,   0.00,   0.00,0.00000,000.000, 0.00000, 0.00000, 0.00000, 0.00000, 1
     38,    -88,'BL',  0.00310,  0.16380,  0.00000,   0.00,   0.00,   0.00,0.00000,000.000, 0.00000, 0.00000, 0.00000, 0.00000, 1
     39,    -43,'BL',  0.00602,  0.04950,  0.07120,   0.00,   0.00,   0.00,0.00000,000.000, 0.00000, 0.00000, 0.00000, 0.00000, 1
     39,    -84,'BL',  0.00722,  0.27860,  0.00000,   0.00,   0.00,   0.00,0.00000,000.000, 0.00000, 0.00000, 0.00000, 0.00000, 1
     40,    -44,'BL',  0.00603,  0.04960,  0.07140,   0.00,   0.00,   0.00,0.00000,000.000, 0.00000, 0.00000, 0.00000, 0.00000, 1
     40,    -84,'BL',  0.00729,  0.27560,  0.00000,   0.00,   0.00,   0.00,0.00000,000.000, 0.00000, 0.00000, 0.00000, 0.00000, 1
     41,    -42,'BL',  0.00050,  0.15140,  0.00000,   0.00,   0.00,   0.00,0.00000,000.000, 0.00000, 0.00000, 0.00000, 0.00000, 1
     41,    -43,'BL',  0.00001,  0.00090,  0.00060,   0.00,   0.00,   0.00,0.00000,000.000, 0.00000, 0.00000, 0.00000, 0.00000, 1
     42,    -44,'BL',  0.00001,  0.00090,  0.00060,   0.00,   0.00,   0.00,0.00000,000.000, 0.00000, 0.00000, 0.00000, 0.00000, 1
     43,    -46,'BL',  0.00618,  0.05080,  0.07320,   0.00,   0.00,   0.00,0.00000,000.000, 0.00000, 0.00000, 0.00000, 0.00000, 1
     44,    -45,'BL',  0.00618,  0.05080,  0.07320,   0.00,   0.00,   0.00,0.00000,000.000, 0.00000, 0.00000, 0.00000, 0.00000, 1
     45,    -61,'BL',  0.00445,  0.03660,  0.05260,   0.00,   0.00,   0.00,0.00000,000.000, 0.00000, 0.00000, 0.00000, 0.00000, 1
     45,    -85,'BL',  0.00000,  0.26000,  0.00000,   0.00,   0.00,   0.00,0.00000,000.000, 0.00000, 0.00000, 0.00000, 0.00000, 1
     46,    -61,'BL',  0.00445,  0.03660,  0.05260,   0.00,   0.00,   0.00,0.00000,000.000, 0.00000, 0.00000, 0.00000, 0.00000, 1
     46,    -85,'BL',  0.00000,  0.25920,  0.00000,   0.00,   0.00,   0.00,0.00000,000.000, 0.00000, 0.00000, 0.00000, 0.00000, 1
     47,    -48,'BL', -0.01000,  0.23060,  0.00000,   0.00,   0.00,   0.00,0.00000,000.000, 0.00000, 0.00000, 0.00000, 0.00000, 1
     47,    -50,'BL',  0.00001,  0.00090,  0.00060,   0.00,   0.00,   0.00,0.00000,000.000, 0.00000, 0.00000, 0.00000, 0.00000, 1
     47,    -87,'BL',  0.08310,  0.40100,  0.00000,   0.00,   0.00,   0.00,0.00000,000.000, 0.00000, 0.00000, 0.00000, 0.00000, 1
     48,    -49,'BL',  0.00001,  0.00090,  0.00060,   0.00,   0.00,   0.00,0.00000,000.000, 0.00000, 0.00000, 0.00000, 0.00000, 1
     48,    -87,'BL',  0.09980,  0.43600,  0.00000,   0.00,   0.00,   0.00,0.00000,000.000, 0.00000, 0.00000, 0.00000, 0.00000, 1
     49,    -51,'BL',  0.00898,  0.07900,  0.12480,   0.00,   0.00,   0.00,0.00000,000.000, 0.00000, 0.00000, 0.00000, 0.00000, 1
     50,    -51,'BL',  0.00898,  0.07900,  0.12480,   0.00,   0.00,   0.00,0.00000,000.000, 0.00000, 0.00000, 0.00000, 0.00000, 1
     51,    -52,'BL',  0.00290,  0.02790,  0.04660,   0.00,   0.00,   0.00,0.00000,000.000, 0.00000, 0.00000, 0.00000, 0.00000, 1
     51,    -53,'BL',  0.00290,  0.02790,  0.04660,   0.00,   0.00,   0.00,0.00000,000.000, 0.00000, 0.00000, 0.00000, 0.00000, 1
     51,    -56,'BL',  0.00759,  0.04830,  0.07120,   0.00,   0.00,   0.00,0.00000,000.000, 0.00000, 0.00000, 0.00000, 0.00000, 1
     51,    -57,'BL',  0.00759,  0.04830,  0.07120,   0.00,   0.00,   0.00,0.00000,000.000, 0.00000, 0.00000, 0.00000, 0.00000, 1
     52,    -53,'BL', -0.00670,  0.39110,  0.00000,   0.00,   0.00,   0.00,0.00000,000.000, 0.00000, 0.00000, 0.00000, 0.00000, 1
     52,    -54,'BL',  0.00470,  0.02930,  0.04620,   0.00,   0.00,   0.00,0.00000,000.000, 0.00000, 0.00000, 0.00000, 0.00000, 1
     53,    -55,'BL',  0.00470,  0.02930,  0.04620,   0.00,   0.00,   0.00,0.00000,000.000, 0.00000, 0.00000, 0.00000, 0.00000, 1
     54,    -55,'BL', -0.05530,  0.92890,  0.00000,   0.00,   0.00,   0.00,0.00000,000.000, 0.00000, 0.00000, 0.00000, 0.00000, 1
     54,    -61,'BL',  0.00141,  0.00870,  0.01380,   0.00,   0.00,   0.00,0.00000,000.000, 0.00000, 0.00000, 0.00000, 0.00000, 1
     55,    -61,'BL',  0.00141,  0.00870,  0.01380,   0.00,   0.00,   0.00,0.00000,000.000, 0.00000, 0.00000, 0.00000, 0.00000, 1
     56,    -57,'BL', -0.00900,  0.38950,  0.00000,   0.00,   0.00,   0.00,0.00000,000.000, 0.00000, 0.00000, 0.00000, 0.00000, 1
     56,    -58,'BL',  0.00190,  0.01200,  0.01780,   0.00,   0.00,   0.00,0.00000,000.000, 0.00000, 0.00000, 0.00000, 0.00000, 1
     57,    -58,'BL',  0.00190,  0.01200,  0.01780,   0.00,   0.00,   0.00,0.00000,000.000, 0.00000, 0.00000, 0.00000, 0.00000, 1
     58,    -14,'BL',  0.00017,  0.00815,  0.00000,   0.00,   0.00,   0.00,1.09123,  0.000, 0.00000, 0.00000,00.00000,00.00000, 1
     58,    -59,'BL',  0.66740,  2.21750,  0.00000,   0.00,   0.00,   0.00,0.00000,000.000, 0.00000, 0.00000, 0.00000, 0.00000, 1
     58,    -72,'BL',  0.03020,  0.23640,  0.00000,   0.00,   0.00,   0.00,0.00000,000.000, 0.00000, 0.00000, 0.00000, 0.00000, 1
     58,    -87,'BL',  0.08630,  0.39060,  0.00000,   0.00,   0.00,   0.00,0.00000,000.000, 0.00000, 0.00000, 0.00000, 0.00000, 1
     58,    -98,'BL',  0.01310,  0.17650,  0.00000,   0.00,   0.00,   0.00,0.00000,000.000, 0.00000, 0.00000, 0.00000, 0.00000, 1
     58,   -100,'BL',  0.11930,  1.26900,  0.00000,   0.00,   0.00,   0.00,0.00000,000.000, 0.00000, 0.00000, 0.00000, 0.00000, 1
     58,   -103,'BL',  0.84160,  5.53830,  0.00000,   0.00,   0.00,   0.00,0.00000,000.000, 0.00000, 0.00000, 0.00000, 0.00000, 1
     59,    -17,'BL',  0.00008,  0.00538,  0.00000,   0.00,   0.00,   0.00,1.14837,  0.000, 0.00000, 0.00000,00.00000,00.00000, 1
     59,    -60,'BL', -0.18030,  5.96590,  0.00000,   0.00,   0.00,   0.00,0.00000,000.000, 0.00000, 0.00000, 0.00000, 0.00000, 1
     59,    -72,'BL',  0.86130,  3.04850,  0.00000,   0.00,   0.00,   0.00,0.00000,000.000, 0.00000, 0.00000, 0.00000, 0.00000, 1
     59,    -79,'BL',  0.00990,  0.26440,  0.00000,   0.00,   0.00,   0.00,0.00000,000.000, 0.00000, 0.00000, 0.00000, 0.00000, 1
     59,    -80,'BL',  0.28760,  2.38980,  0.00000,   0.00,   0.00,   0.00,0.00000,000.000, 0.00000, 0.00000, 0.00000, 0.00000, 1
     59,    -89,'BL',  0.34210,  9.05710,  0.00000,   0.00,   0.00,   0.00,0.00000,000.000, 0.00000, 0.00000, 0.00000, 0.00000, 1
     59,    -92,'BL', -0.00700,  0.56780,  0.00000,   0.00,   0.00,   0.00,0.00000,000.000, 0.00000, 0.00000, 0.00000, 0.00000, 1
     59,    -94,'BL',  0.70410,  5.98850,  0.00000,   0.00,   0.00,   0.00,0.00000,000.000, 0.00000, 0.00000, 0.00000, 0.00000, 1
     59,    -98,'BL',  0.10600,  0.58450,  0.00000,   0.00,   0.00,   0.00,0.00000,000.000, 0.00000, 0.00000, 0.00000, 0.00000, 1
     59,   -100,'BL',  0.01830,  0.20160,  0.00000,   0.00,   0.00,   0.00,0.00000,000.000, 0.00000, 0.00000, 0.00000, 0.00000, 1
     59,   -103,'BL',  0.03680,  0.33410,  0.00000,   0.00,   0.00,   0.00,0.00000,000.000, 0.00000, 0.00000, 0.00000, 0.00000, 1
     59,   -107,'BL',  0.03720,  0.88340,  0.00000,   0.00,   0.00,   0.00,0.00000,000.000, 0.00000, 0.00000, 0.00000, 0.00000, 1
     60,    -79,'BL', -0.03750,  1.10680,  0.00000,   0.00,   0.00,   0.00,0.00000,000.000, 0.00000, 0.00000, 0.00000, 0.00000, 1
     60,    -80,'BL',  0.06550,  2.64410,  0.00000,   0.00,   0.00,   0.00,0.00000,000.000, 0.00000, 0.00000, 0.00000, 0.00000, 1
     60,    -90,'BL', -0.02010,  1.51350,  0.00000,   0.00,   0.00,   0.00,0.00000,000.000, 0.00000, 0.00000, 0.00000, 0.00000, 1
     60,    -92,'BL', -0.26400,  3.71390,  0.00000,   0.00,   0.00,   0.00,0.00000,000.000, 0.00000, 0.00000, 0.00000, 0.00000, 1
     60,    -94,'BL',  0.00120,  0.07750,  0.00000,   0.00,   0.00,   0.00,0.00000,000.000, 0.00000, 0.00000, 0.00000, 0.00000, 1
     60,    -95,'BL', -0.08550,  0.99260,  0.00000,   0.00,   0.00,   0.00,0.00000,000.000, 0.00000, 0.00000, 0.00000, 0.00000, 1
     60,   -135,'BL', -1.83100,  9.79640,  0.00000,   0.00,   0.00,   0.00,0.00000,000.000, 0.00000, 0.00000, 0.00000, 0.00000, 1
     60,   -138,'BL', -0.36390,  1.79360,  0.00000,   0.00,   0.00,   0.00,0.00000,000.000, 0.00000, 0.00000, 0.00000, 0.00000, 1
     61,    -63,'A ',  0.00812,  0.07820,  0.13180,   0.00,   0.00,   0.00,0.00000,000.000, 0.00000, 0.00000, 0.00000, 0.00000, 1
     61,    -63,'BL',  0.00812,  0.07820,  0.13180,   0.00,   0.00,   0.00,0.00000,000.000, 0.00000, 0.00000, 0.00000, 0.00000, 1
     61,    -64,'BL',  0.00242,  0.03180,  0.05680,   0.00,   0.00,   0.00,0.00000,000.000, 0.00000, 0.00000, 0.00000, 0.00000, 1
     61,    -65,'BL',  0.00242,  0.03180,  0.05680,   0.00,   0.00,   0.00,0.00000,000.000, 0.00000, 0.00000, 0.00000, 0.00000, 1
     62,    -61,'A ', -0.05204, -0.59954,  0.00000,   0.00,   0.00,   0.00,0.95238,  0.000, 0.00000, 0.00000,00.00000,00.00000, 1
     62,    -61,'BL', -0.03991, -0.28753,  0.00000,   0.00,   0.00,   0.00,0.95238,  0.000, 0.00000, 0.00000,00.00000,00.00000, 1
     62,    -86,'A ',  0.00130,  0.08380,  0.00000,   0.00,   0.00,   0.00,0.00000,000.000, 0.00000, 0.00000, 0.00000, 0.00000, 1
     62,    -86,'BL',  0.00360,  0.05010,  0.00000,   0.00,   0.00,   0.00,0.00000,000.000, 0.00000, 0.00000, 0.00000, 0.00000, 1
     63,    -64,'BL',  0.01470,  0.28250,  0.00000,   0.00,   0.00,   0.00,0.00000,000.000, 0.00000, 0.00000, 0.00000, 0.00000, 1
     63,    -65,'BL',  0.01470,  0.28130,  0.00000,   0.00,   0.00,   0.00,0.00000,000.000, 0.00000, 0.00000, 0.00000, 0.00000, 1
     63,    -66,'BL',  0.00560,  0.09000,  0.00000,   0.00,   0.00,   0.00,0.00000,000.000, 0.00000, 0.00000, 0.00000, 0.00000, 1
     63,    -67,'BL',  0.03210,  0.27850,  0.00000,   0.00,   0.00,   0.00,0.00000,000.000, 0.00000, 0.00000, 0.00000, 0.00000, 1
     63,    -69,'BL',  0.01070,  0.15710,  0.00000,   0.00,   0.00,   0.00,0.00000,000.000, 0.00000, 0.00000, 0.00000, 0.00000, 1
     63,   -102,'A ',  0.01060,  0.15760,  0.00000,   0.00,   0.00,   0.00,0.00000,000.000, 0.00000, 0.00000, 0.00000, 0.00000, 1
     63,   -102,'B ',  0.01070,  0.16040,  0.00000,   0.00,   0.00,   0.00,0.00000,000.000, 0.00000, 0.00000, 0.00000, 0.00000, 1
     63,   -102,'BL',  0.01060,  0.15830,  0.00000,   0.00,   0.00,   0.00,0.00000,000.000, 0.00000, 0.00000, 0.00000, 0.00000, 1
     63,   -102,'C ',  0.01040,  0.15420,  0.00000,   0.00,   0.00,   0.00,0.00000,000.000, 0.00000, 0.00000, 0.00000, 0.00000, 1
     63,   -116,'BL', -0.38970,  6.85880,  0.00000,   0.00,   0.00,   0.00,0.00000,000.000, 0.00000, 0.00000, 0.00000, 0.00000, 1
     63,   -117,'BL',  0.00300,  0.05600,  0.00000,   0.00,   0.00,   0.00,0.00000,000.000, 0.00000, 0.00000, 0.00000, 0.00000, 1
     63,   -118,'BL', -0.01250,  0.24250,  0.00000,   0.00,   0.00,   0.00,0.00000,000.000, 0.00000, 0.00000, 0.00000, 0.00000, 1
     63,   -124,'BL', -0.12650,  2.02200,  0.00000,   0.00,   0.00,   0.00,0.00000,000.000, 0.00000, 0.00000, 0.00000, 0.00000, 1
     64,    -65,'BL',  0.00130,  0.16740,  0.00000,   0.00,   0.00,   0.00,0.00000,000.000, 0.00000, 0.00000, 0.00000, 0.00000, 1
     64,    -66,'BL',  0.00390,  0.06840,  0.00000,   0.00,   0.00,   0.00,0.00000,000.000, 0.00000, 0.00000, 0.00000, 0.00000, 1
     64,    -67,'BL',  0.02330,  0.21200,  0.00000,   0.00,   0.00,   0.00,0.00000,000.000, 0.00000, 0.00000, 0.00000, 0.00000, 1
     64,    -69,'BL',  0.00750,  0.11960,  0.00000,   0.00,   0.00,   0.00,0.00000,000.000, 0.00000, 0.00000, 0.00000, 0.00000, 1
     64,    -97,'BL', -0.43360,  8.29230,  0.00000,   0.00,   0.00,   0.00,0.00000,000.000, 0.00000, 0.00000, 0.00000, 0.00000, 1
     64,   -124,'BL', -0.10410,  1.53750,  0.00000,   0.00,   0.00,   0.00,0.00000,000.000, 0.00000, 0.00000, 0.00000, 0.00000, 1
     65,    -66,'BL',  0.00390,  0.06820,  0.00000,   0.00,   0.00,   0.00,0.00000,000.000, 0.00000, 0.00000, 0.00000, 0.00000, 1
     65,    -67,'BL',  0.02330,  0.21110,  0.00000,   0.00,   0.00,   0.00,0.00000,000.000, 0.00000, 0.00000, 0.00000, 0.00000, 1
     65,    -69,'BL',  0.00750,  0.11910,  0.00000,   0.00,   0.00,   0.00,0.00000,000.000, 0.00000, 0.00000, 0.00000, 0.00000, 1
     65,    -97,'BL', -0.42920,  8.25820,  0.00000,   0.00,   0.00,   0.00,0.00000,000.000, 0.00000, 0.00000, 0.00000, 0.00000, 1
     65,   -124,'BL', -0.10320,  1.53120,  0.00000,   0.00,   0.00,   0.00,0.00000,000.000, 0.00000, 0.00000, 0.00000, 0.00000, 1
     66,     -7,'BL',  0.00014,  0.00916,  0.00000,   0.00,   0.00,   0.00,1.02923,  0.000, 0.00000, 0.00000,00.00000,00.00000, 1
     66,    -67,'BL',  0.00810,  0.06750,  0.00000,   0.00,   0.00,   0.00,0.00000,000.000, 0.00000, 0.00000, 0.00000, 0.00000, 1
     66,    -68,'BL', -2.47300,  2.47200,  0.00000,   0.00,   0.00,   0.00,0.00000,000.000, 0.00000, 0.00000, 0.00000, 0.00000, 1
     66,    -69,'BL',  0.00280,  0.03810,  0.00000,   0.00,   0.00,   0.00,0.00000,000.000, 0.00000, 0.00000, 0.00000, 0.00000, 1
     66,    -97,'BL', -0.11190,  2.64320,  0.00000,   0.00,   0.00,   0.00,0.00000,000.000, 0.00000, 0.00000, 0.00000, 0.00000, 1
     66,   -111,'A ',  0.00057,  0.02660,  0.00000,   0.00,   0.00,   0.00,0.00000,000.000, 0.00000, 0.00000, 0.00000, 0.00000, 1
     66,   -111,'B ',  0.00000,  0.02730,  0.00000,   0.00,   0.00,   0.00,0.00000,000.000, 0.00000, 0.00000, 0.00000, 0.00000, 1
     66,   -111,'BL',  0.00000,  0.02640,  0.00000,   0.00,   0.00,   0.00,0.00000,000.000, 0.00000, 0.00000, 0.00000, 0.00000, 1
     66,   -111,'C ',  0.00057,  0.02640,  0.00000,   0.00,   0.00,   0.00,0.00000,000.000, 0.00000, 0.00000, 0.00000, 0.00000, 1
     66,   -124,'BL', -0.02830,  0.49020,  0.00000,   0.00,   0.00,   0.00,0.00000,000.000, 0.00000, 0.00000, 0.00000, 0.00000, 1
     67,    -68,'BL', -3.44300,  3.71720,  0.00000,   0.00,   0.00,   0.00,0.00000,000.000, 0.00000, 0.00000, 0.00000, 0.00000, 1
     67,    -69,'BL',  0.00610,  0.05500,  0.00000,   0.00,   0.00,   0.00,0.00000,000.000, 0.00000, 0.00000, 0.00000, 0.00000, 1
     67,    -97,'BL',  0.00630,  0.11660,  0.00000,   0.00,   0.00,   0.00,0.00000,000.000, 0.00000, 0.00000, 0.00000, 0.00000, 1
     67,   -119,'BL', -0.22130,  9.39180,  0.00000,   0.00,   0.00,   0.00,0.00000,000.000, 0.00000, 0.00000, 0.00000, 0.00000, 1
     67,   -120,'BL', -0.00340,  1.78470,  0.00000,   0.00,   0.00,   0.00,0.00000,000.000, 0.00000, 0.00000, 0.00000, 0.00000, 1
     67,   -121,'BL',  0.00820,  1.17000,  0.00000,   0.00,   0.00,   0.00,0.00000,000.000, 0.00000, 0.00000, 0.00000, 0.00000, 1
     67,   -122,'BL', -0.00470,  0.44730,  0.00000,   0.00,   0.00,   0.00,0.00000,000.000, 0.00000, 0.00000, 0.00000, 0.00000, 1
     67,   -124,'BL',  0.00030,  0.00650,  0.00000,   0.00,   0.00,   0.00,0.00000,000.000, 0.00000, 0.00000, 0.00000, 0.00000, 1
     67,   -125,'BL',  0.00620,  0.25190,  0.00000,   0.00,   0.00,   0.00,0.00000,000.000, 0.00000, 0.00000, 0.00000, 0.00000, 1
     67,   -132,'BL', -0.31940,  4.35660,  0.00000,   0.00,   0.00,   0.00,0.00000,000.000, 0.00000, 0.00000, 0.00000, 0.00000, 1
     68,    -69,'BL', -0.69200,  0.69840,  0.00000,   0.00,   0.00,   0.00,0.00000,000.000, 0.00000, 0.00000, 0.00000, 0.00000, 1
     69,     -9,'BL',  0.00034,  0.01579,  0.00000,   0.00,   0.00,   0.00,1.09099,  0.000, 0.00000, 0.00000,00.00000,00.00000, 1
     69,    -10,'BL',  0.00034,  0.01571,  0.00000,   0.00,   0.00,   0.00,1.09099,  0.000, 0.00000, 0.00000,00.00000,00.00000, 1
     69,    -70,'BL',  0.00850,  0.33330,  0.00000,   0.00,   0.00,   0.00,0.00000,000.000, 0.00000, 0.00000, 0.00000, 0.00000, 1
     69,    -71,'BL',  0.00750,  0.31200,  0.00000,   0.00,   0.00,   0.00,0.00000,000.000, 0.00000, 0.00000, 0.00000, 0.00000, 1
     69,    -72,'BL',  0.00130,  0.01000,  0.00000,   0.00,   0.00,   0.00,0.00000,000.000, 0.00000, 0.00000, 0.00000, 0.00000, 1
     69,    -73,'BL',  0.00980,  0.07470,  0.00000,   0.00,   0.00,   0.00,0.00000,000.000, 0.00000, 0.00000, 0.00000, 0.00000, 1
     69,    -74,'BL',  0.01350,  0.07410,  0.00000,   0.00,   0.00,   0.00,0.00000,000.000, 0.00000, 0.00000, 0.00000, 0.00000, 1
     69,    -97,'BL', -0.06740,  1.58490,  0.00000,   0.00,   0.00,   0.00,0.00000,000.000, 0.00000, 0.00000, 0.00000, 0.00000, 1
     69,   -101,'BL',  0.01740,  0.21880,  0.00000,   0.00,   0.00,   0.00,0.00000,000.000, 0.00000, 0.00000, 0.00000, 0.00000, 1
     69,   -112,'BL',  0.01750,  0.22010,  0.00000,   0.00,   0.00,   0.00,0.00000,000.000, 0.00000, 0.00000, 0.00000, 0.00000, 1
     69,   -124,'BL', -0.02670,  0.39860,  0.00000,   0.00,   0.00,   0.00,0.00000,000.000, 0.00000, 0.00000, 0.00000, 0.00000, 1
     70,    -71,'BL', -0.48910,  2.66130,  0.00000,   0.00,   0.00,   0.00,0.00000,000.000, 0.00000, 0.00000, 0.00000, 0.00000, 1
...
0 / END OF BRANCH DATA, BEGIN TRANSFORMER ADJUSTMENT DATA
0 / END OF TRANSFORMER ADJUSTMENT DATA, BEGIN AREA DATA
   1,      0,     0.0,  3.000,'            '
0 / END OF AREA DATA, BEGIN TWO-TERMINAL DC DATA
0 / END OF TWO-TERMINAL DC DATA, BEGIN SWITCHED SHUNT DATA
0 / END OF SWITCHED SHUNT DATA, BEGIN IMPEDANCE CORRECTION DATA
0 / END OF IMPEDANCE CORRECTION DATA, BEGIN MULTI-TERMINAL DC DATA
0 / END OF MULTI-TERMINAL DC DATA, BEGIN MULTI-SECTION LINE DATA
0 / END OF MULTI-SECTION LINE DATA, BEGIN ZONE DATA
    2,'ZONE_2      '
    1,'ZONE_0      '
0 / END OF ZONE DATA, BEGIN INTER-AREA TRANSFER DATA
0 / END OF INTER-AREA TRANSFER DATA, BEGIN OWNER DATA
0 / END OF OWNER DATA, BEGIN FACTS DEVICE DATA
